/*--------------------------------*- C++ -*----------------------------------*\
| =========                 |                                                 |
| \\      /  F ield         | OpenFOAM: The Open Source CFD Toolbox           |
|  \\    /   O peration     | Version:  v2412                                 |
|   \\  /    A nd           | Website:  www.openfoam.com                      |
|    \\/     M anipulation  |                                                 |
\*---------------------------------------------------------------------------*/
FoamFile
{
    version     2.0;
    format      ascii;
    class       volVectorField;
    object      U;
}
// * * * * * * * * * * * * * * * * * * * * * * * * * * * * * * * * * * * * * //

dimensions      [0 1 -1 0 0 0 0];

internalField   uniform (0 0 0);

boundaryField
{
    #includeEtc "caseDicts/setConstraintTypes"

    walls
    {
        type            uniformFixedValue;
        uniformValue    (0 0 0);
    }

    hole
    {
        type            movingWallVelocity;
        value           uniform (0 0 0);
    }

    outlet
    {
        type            uniformFixedValue;
        uniformValue    (0 0 0);
    }

    inlet
    {
        type            uniformFixedValue;
        uniformValue     (0 0 0);
    }

    overset
    {
        type            overset;
    }
}

// ************************************************************************* //
